Circuit: * C:\git-checkouts\ads-bee\ltspice\bandpass_ac.asc


Date: Wed Feb 15 11:38:08 2023
Total elapsed time: 0.036 seconds.

tnom = 27
temp = 27
method = trap
totiter = 0
traniter = 0
tranpoints = 0
accept = 0
rejected = 0
matrix size = 5
fillins = 1
solver = Normal

