Circuit: * C:\git-checkouts\ads-bee\ltspice\hysteresis_comparator.asc

WARNING: Less than two connections to node NC_01.  This node is used by D2.
Direct Newton iteration for .op point succeeded.

Date: Mon Dec 25 23:41:56 2023
Total elapsed time: 2.170 seconds.

tnom = 27
temp = 27
method = modified trap
totiter = 726097
traniter = 726075
tranpoints = 266999
accept = 221325
rejected = 45674
matrix size = 16
fillins = 0
solver = Normal
Matrix Compiler1: 592 bytes object code size  0.1/0.1/[0.1]
Matrix Compiler2: off  [0.1]/0.6/0.2

