Circuit: * C:\git-checkouts\ads-bee\ltspice\rf_det_out_amp.asc

Direct Newton iteration for .op point succeeded.

Date: Sun Mar 24 11:45:29 2024
Total elapsed time: 0.040 seconds.

tnom = 27
temp = 27
method = modified trap
totiter = 3562
traniter = 3537
tranpoints = 1683
accept = 1488
rejected = 195
matrix size = 8
fillins = 1
solver = Normal
Matrix Compiler1: 336 bytes object code size  0.1/0.0/[0.0]
Matrix Compiler2: off  [0.1]/0.1/0.1

